ieee.odm.test/testdata/psse/PSSE07C.raw
0, 100.0
RTDS Loadflow Raw File
Converted from BPA format
    1  'ANSH-HLZ  ' 525.000 1      0.000      0.000  1  1   1.00000     0.0000    1
    2  'EQG029    '  20.000 2      0.000      0.000  1  1   1.04900     0.0000    1
    3  'ANSHHLZ1  ' 525.000 1      0.000      0.000  1  1   1.00000     0.0000    1
    4  'BEIJIAO1  ' 230.000 1      0.000      0.000  1  1   1.00000     0.0000    1
    5  'BEIJIAO   ' 230.000 2      0.000      0.000  1  1   0.96600     0.0000    1
    6  'GD-HLZ    ' 525.000 1      0.000      0.000  1  1   1.00000     0.0000    1
    7  'GD01-HLZ  ' 525.000 1      0.000      0.000  1  1   1.00000     0.0000    1
    8  'ZENGD0H   ' 525.000 2      0.000      0.000  1  1   0.99400     0.0000    1
    9  'HUIZ-HLZ  ' 525.000 1      0.000      0.000  1  1   1.00000     0.0000    1
   10  'HUIZHLZ1  ' 525.000 1      0.000      0.000  1  1   1.00000     0.0000    1
   11  'TSQD-M1   ' 230.000 1      0.000      0.000  1  1   1.00000     0.0000    1
   12  'XREN-HLZ  ' 525.000 2      0.000      0.000  1  1   1.02300     0.0000    1
   13  'EQG027    '  24.000 2      0.000      0.000  1  1   1.00500     0.0000    1
   14  'XRENHLZ1  ' 525.000 1      0.000      0.000  1  1   1.00000     0.0000    1
   15  'YN01-HLZ  ' 525.000 1      0.000      0.000  1  1   1.00000     0.0000    1
   16  'YN01HLZ1  ' 525.000 1      0.000      0.000  1  1   1.00000     0.0000    1
   17  'ZQ-HLZ1   ' 525.000 1      0.000      0.000  1  1   1.00000     0.0000    1
   18  'ZQ-HLZ    ' 525.000 2      0.000      0.000  1  1   1.00100     0.0000    1
   19  'EQG001    '  20.000 2      0.000      0.000  1  1   1.00000     0.0000    1
   20  'GUANGN0H  ' 525.000 2      0.000      0.000  1  1   0.99900     0.0000    1
   21  'HEY50H    ' 525.000 2      0.000      0.000  1  1   1.01000     0.0000    1
   22  'HUADU0H   ' 525.000 2      0.000      0.000  1  1   0.99400     0.0000    1
   23  'HUIZ0H    ' 525.000 2      0.000      0.000  1  1   1.00200     0.0000    1
   24  'JIANGM0H  ' 525.000 2      0.000      0.000  1  1   0.99700     0.0000    1
   25  'QINGY50H  ' 525.000 2      0.000      0.000  1  1   1.00200     0.0000    1
   26  'SHAJ50P   ' 525.000 2      0.000      0.000  1  1   1.00000     0.0000    1
   27  'BAIHD0H   ' 525.000 2      0.000      0.000  1  1   0.99100     0.0000    1
   28  'BEIJ0H    ' 525.000 2      0.000      0.000  1  1   0.98800     0.0000    1
   29  'BOLUO0H   ' 525.000 1      0.000      0.000  1  1   1.00000     0.0000    1
   30  'DAYW50P   ' 525.000 1      0.000      0.000  1  1   1.00000     0.0000    1
   31  'DONGG0H   ' 525.000 1      0.000      0.000  1  1   1.00000     0.0000    1
   32  'DONGG20H  ' 525.000 1      0.000      0.000  1  1   1.00000     0.0000    1
   33  'GAOM0H    ' 525.000 2      0.000      0.000  1  1   0.99100     0.0000    1
   34  'GAOME0H   ' 525.000 2      0.000      0.000  1  1   1.00100     0.0000    1
   35  'HONGM0H   ' 525.000 1      0.000      0.000  1  1   1.00000     0.0000    1
   36  'HUICH50H  ' 525.000 1      0.000      0.000  1  1   1.00000     0.0000    1
   37  'HUIZXN0P  ' 525.000 1      0.000      0.000  1  1   1.00000     0.0000    1
   38  'KAIP0H    ' 525.000 1      0.000      0.000  1  1   1.00000     0.0000    1
   39  'LONGG0H   ' 525.000 1      0.000      0.000  1  1   1.00000     0.0000    1
   40  'LUODO0H   ' 525.000 2      0.000      0.000  1  1   0.98400     0.0000    1
   41  'MAOM0H    ' 525.000 1      0.000      0.000  1  1   1.00000     0.0000    1
   42  'MEIZH0H   ' 525.000 1      0.000      0.000  1  1   1.00000     0.0000    1
   43  'NANSHA0H  ' 525.000 1      0.000      0.000  1  1   1.00000     0.0000    1
   44  'PENGC0H   ' 525.000 1      0.000      0.000  1  1   1.00000     0.0000    1
   45  'SANX50H   ' 525.000 1      0.000      0.000  1  1   1.00000     0.0000    1
   46  'SHENZ0H   ' 525.000 1      0.000      0.000  1  1   1.00000     0.0000    1
   47  'SHIPAI0H  ' 525.000 1      0.000      0.000  1  1   1.00000     0.0000    1
   48  'SHUNDE0H  ' 525.000 1      0.000      0.000  1  1   1.00000     0.0000    1
   49  'XINHUI0H  ' 525.000 1      0.000      0.000  1  1   1.00000     0.0000    1
   50  'XUNENG1P  ' 525.000 1      0.000      0.000  1  1   1.00000     0.0000    1
   51  'YANGJ50H  ' 525.000 2      0.000      0.000  1  1   0.99900     0.0000    1
   52  'ZENGC0H   ' 525.000 1      0.000      0.000  1  1   1.00000     0.0000    1
   53  'ZHAOQ0H   ' 525.000 2      0.000      0.000  1  1   1.00000     0.0000    1
   54  'ZHONGS0H  ' 525.000 1      0.000      0.000  1  1   1.00000     0.0000    1
   55  'EQG013    '  18.000 2      0.000      0.000  1  1   1.00000     0.0000    1
   56  'EQG007    '  15.000 2      0.000      0.000  1  1   1.00000     0.0000    1
   57  'EQG004    '  26.000 2      0.000      0.000  1  1   1.00600     0.0000    1
   58  'EQG010    '  18.000 2      0.000      0.000  1  1   1.00000     0.0000    1
   59  'EQG011    '  20.000 2      0.000      0.000  1  1   1.00000     0.0000    1
   60  'EQG015    '  13.800 2      0.000      0.000  1  1   0.99400     0.0000    1
   61  'EQG016    '  26.000 2      0.000      0.000  1  1   1.00000     0.0000    1
   62  'EQG018    '  13.800 2      0.000      0.000  1  1   1.00000     0.0000    1
   63  'EQG019    '  20.000 2      0.000      0.000  1  1   1.01000     0.0000    1
   64  'EQG020    '  20.000 2      0.000      0.000  1  1   1.00000     0.0000    1
   65  'EQG021    '  26.000 2      0.000      0.000  1  1   1.00000     0.0000    1
   66  'EQG023    '  20.000 2      0.000      0.000  1  1   1.00500     0.0000    1
   67  'EQG022    '  15.800 2      0.000      0.000  1  1   1.00200     0.0000    1
   68  'EQG024    '  20.000 2      0.000      0.000  1  1   1.00000     0.0000    1
   69  'EQG028    '  22.000 2      0.000      0.000  1  1   1.00000     0.0000    1
   70  'BS-H      ' 525.000 1      0.000      0.000  1  1   1.00000     0.0000    1
   71  'EQG002    '  13.500 2      0.000      0.000  1  1   0.98500     0.0000    1
   72  'WZ-H      ' 525.000 2      0.000      0.000  1  1   0.99100     0.0000    1
   73  'HZ-H      ' 525.000 2      0.000      0.000  1  1   0.98400     0.0000    1
   74  'EQG003    '  10.500 2      0.000      0.000  1  1   1.00000     0.0000    1
   75  'DUSHAN-H  ' 525.000 2      0.000      0.000  1  1   1.01700     0.0000    1
   76  'EQG006    '  18.000 2      0.000      0.000  1  1   0.99900     0.0000    1
   77  'GG-H      ' 525.000 2      0.000      0.000  1  1   1.01500     0.0000    1
   78  'GG1S      '  18.000 3      0.000      0.000  1  1   1.04000     0.0000    1
   79  'EQG017    '  18.000 2      0.000      0.000  1  1   1.00800     0.0000    1
   80  'GL-H      ' 525.000 2      0.000      0.000  1  1   0.99200     0.0000    1
   81  'HC-H      ' 525.000 2      0.000      0.000  1  1   1.01500     0.0000    1
   82  'EQG012    '  10.500 2      0.000      0.000  1  1   1.00000     0.0000    1
   83  'KGZ       ' 525.000 1      0.000      0.000  1  1   1.00000     0.0000    1
   84  'LB-H      ' 525.000 2      0.000      0.000  1  1   1.01200     0.0000    1
   85  'EQG014    '  13.800 2      0.000      0.000  1  1   1.00700     0.0000    1
   86  'LD-H      ' 525.000 2      0.000      0.000  1  1   0.99600     0.0000    1
   87  'YT-5G     ' 525.000 2      0.000      0.000  1  1   1.02600     0.0000    1
   88  'LT-5G     ' 525.000 2      0.000      0.000  1  1   1.02700     0.0000    1
   89  'NN-H      ' 525.000 2      0.000      0.000  1  1   1.00700     0.0000    1
   90  'PG-H      ' 525.000 2      0.000      0.000  1  1   1.01500     0.0000    1
   91  'PG2-H     ' 525.000 1      0.000      0.000  1  1   1.00000     0.0000    1
   92  'SC-BS1    ' 525.000 1      0.000      0.000  1  1   1.00000     0.0000    1
   93  'SC-BS2    ' 525.000 1      0.000      0.000  1  1   1.00000     0.0000    1
   94  'SC-BST    ' 525.000 1      0.000      0.000  1  1   1.00000     0.0000    1
   95  'SC-HC1    ' 525.000 1      0.000      0.000  1  1   1.00000     0.0000    1
   96  'SC-HC2    ' 525.000 1      0.000      0.000  1  1   1.00000     0.0000    1
   97  'SC-PG1    ' 525.000 1      0.000      0.000  1  1   1.00000     0.0000    1
   98  'SC-PG2    ' 525.000 1      0.000      0.000  1  1   1.00000     0.0000    1
   99  'ST-H      ' 525.000 2      0.000      0.000  1  1   0.99200     0.0000    1
  100  'EQG025    '  18.000 2      0.000      0.000  1  1   1.01700     0.0000    1
  101  'TSQD-H    ' 525.000 2      0.000      0.000  1  1   1.02600     0.0000    1
  102  'TSQD-M    ' 230.000 2      0.000      0.000  1  1   1.03100     0.0000    1
  103  'TSQB-H    ' 525.000 2      0.000      0.000  1  1   1.02600     0.0000    1
  104  'EQG026    '  18.000 2      0.000      0.000  1  1   1.02000     0.0000    1
  105  'YL-H      ' 525.000 2      0.000      0.000  1  1   0.99900     0.0000    1
  106  'BAHE-KAI  ' 525.000 1      0.000      0.000  1  1   1.00000     0.0000    1
  107  'EQG005    '  24.000 2      0.000      0.000  1  1   1.00000     0.0000    1
  108  'EQG009    '  20.000 2      0.000      0.000  1  1   0.98900     0.0000    1
  109  'GUIY      ' 525.000 2      0.000      0.000  1  1   1.02200     0.0000    1
  110  'HUISHUI   ' 525.000 2      0.000      0.000  1  1   1.01900     0.0000    1
  111  'LIPING    ' 525.000 2      0.000      0.000  1  1   0.98900     0.0000    1
  112  'QDONG     ' 525.000 2      0.000      0.000  1  1   1.01900     0.0000    1
  113  'QDONG3    ' 525.000 2      0.000      0.000  1  1   0.99000     0.0000    1
  114  'XINREN    ' 525.000 2      0.000      0.000  1  1   1.02100     0.0000    1
  115  'EQG031    '  15.800 2      0.000      0.000  1  1   1.00500     0.0000    1
  116  'kaiguan   ' 525.000 2      0.000      0.000  1  1   1.02700     0.0000    1
  117  'EQG035    '  20.000 2      0.000      0.000  1  1   0.99700     0.0000    1
  118  'EQG030    '  20.000 2      0.000      0.000  1  1   0.99700     0.0000    1
  119  'EQG036    '  10.500 2      0.000      0.000  1  1   1.01700     0.0000    1
  120  'EQG039    '  20.000 2      0.000      0.000  1  1   1.01000     0.0000    1
  121  'baofengg  ' 525.000 1      0.000      0.000  1  1   1.00000     0.0000    1
  122  'caopug    ' 525.000 1      0.000      0.000  1  1   1.00000     0.0000    1
  123  'changkg   ' 525.000 2      0.000      0.000  1  1   1.01800     0.0000    1
  124  'dianxig   ' 525.000 1      0.000      0.000  1  1   1.00000     0.0000    1
  125  'hongheg   ' 525.000 2      0.000      0.000  1  1   1.02200     0.0000    1
  126  'EQG032    '  18.000 2      0.000      0.000  1  1   1.00000     0.0000    1
  127  'jinganqg  ' 525.000 1      0.000      0.000  1  1   1.00000     0.0000    1
  128  'EQG033    '  18.000 2      0.000      0.000  1  1   1.00900     0.0000    1
  129  'lixianjg  ' 525.000 2      0.000      0.000  1  1   1.02800     0.0000    1
  130  'EQG034    '  15.800 2      0.000      0.000  1  1   0.99900     0.0000    1
  131  'dacs500g  ' 525.000 1      0.000      0.000  1  1   1.00000     0.0000    1
  132  'manw500g  ' 525.000 2      0.000      0.000  1  1   1.03200     0.0000    1
  133  'kunxibg   ' 525.000 2      0.000      0.000  1  1   1.01300     0.0000    1
  134  'luopingg  ' 525.000 1      0.000      0.000  1  1   1.00000     0.0000    1
  135  'qidiang   ' 525.000 2      0.000      0.000  1  1   1.02000     0.0000    1
  136  'qujingbg  ' 525.000 1      0.000      0.000  1  1   1.00000     0.0000    1
  137  'wenshang  ' 525.000 2      0.000      0.000  1  1   1.03400     0.0000    1
  138  'EQG037    '  20.000 2      0.000      0.000  1  1   1.00000     0.0000    1
  139  'xiaowang  ' 525.000 2      0.000      0.000  1  1   1.02900     0.0000    1
  140  'EQG038    '  10.500 2      0.000      0.000  1  1   1.02300     0.0000    1
  141  'yuxig     ' 525.000 1      0.000      0.000  1  1   1.00000     0.0000    1
0 /end bus section starting load section
    1   1   1   1   1           0.000         0.000          0.000          0.000          0.000       1151.000    1
    2   1   1   1   1         700.000       442.600          0.000          0.000        530.000       -140.000    1
    3   1   1   1   1        3001.000      1557.000          0.000          0.000          0.000          0.000    1
    4   1   1   1   1       -1686.000       927.200          0.000          0.000          0.000          0.000    1
    5   1   1   1   1        1849.000       467.300          0.000          0.000        865.000          0.000    1
    6   1   1   1   1       -2794.000      1603.000          0.000          0.000          0.000          0.000    1
    7   1   1   1   1       -4781.000      2914.000          0.000          0.000          0.000          0.000    1
    8   1   1   1   1           0.000         0.000          0.000          0.000          0.000       3000.000    1
    9   1   1   1   1           0.000         0.000          0.000          0.000          0.000       1650.000    1
   10   1   1   1   1       -2821.000      1603.000          0.000          0.000          0.000          0.000    1
   11   1   1   1   1        1802.000       917.200          0.000          0.000          0.000          0.000    1
   12   1   1   1   1           0.000         0.000          0.000          0.000          0.000       2006.000    1
   13   1   1   1   1         144.000        72.000          0.000          0.000          0.000       -747.000    1
   14   1   1   1   1        3001.000      1557.000          0.000          0.000          0.000          0.000    1
   15   1   1   1   1           0.000         0.000          0.000          0.000          0.000       2095.000    1
   16   1   1   1   1        5001.000      2749.000          0.000          0.000          0.000          0.000    1
   17   1   1   1   1       -2835.000      1619.000          0.000          0.000          0.000          0.000    1
   19   1   1   1   1        1047.000       391.600          0.000          0.000       2561.000       -999.000    1
   20   1   1   1   1        1232.000       501.900          0.000          0.000        780.000        626.000    1
   21   1   1   1   1         193.700        41.690          0.000          0.000         68.400        297.000    1
   22   1   1   1   1         965.900       224.600          0.000          0.000        184.000        977.000    1
   23   1   1   1   1        1020.000       300.500          0.000          0.000       1141.000       1517.000    1
   24   1   1   1   1         570.200       194.000          0.000          0.000        259.000        280.000    1
   25   1   1   1   1           0.000        56.280          0.000          0.000          0.000        399.000    1
   26   1   1   1   1           0.000         0.000          0.000          0.000          0.000        -65.000    1
   27   1   1   1   1        1418.000       522.100          0.000          0.000        586.000        571.000    1
   28   1   1   1   1           8.914         3.193          0.000          0.000          4.220        -92.000    1
   29   1   1   1   1         488.300       128.000          0.000          0.000        170.000        521.000    1
   30   1   1   1   1         561.200       190.000          0.000          0.000        -65.000         69.600    1
   31   1   1   1   1        1661.000       711.500          0.000          0.000        799.000        180.000    1
   32   1   1   1   1        1881.000       718.100          0.000          0.000       1186.000        959.000    1
   33   1   1   1   1         796.500       254.700          0.000          0.000        323.000        412.000    1
   34   1   1   1   1         366.700       121.100          0.000          0.000        159.000         71.800    1
   35   1   1   1   1        1341.000       475.300          0.000          0.000        641.000        338.000    1
   36   1   1   1   1         454.000       147.800          0.000          0.000        211.000       -110.000    1
   38   1   1   1   1         251.800       102.300          0.000          0.000         79.000        198.000    1
   39   1   1   1   1         843.100       307.400          0.000          0.000         83.200        965.000    1
   40   1   1   1   1        1465.000       638.700          0.000          0.000        733.000        288.000    1
   41   1   1   1   1         636.200       157.600          0.000          0.000        -61.000       1586.000    1
   42   1   1   1   1         918.400       291.900          0.000          0.000        503.000       1380.000    1
   43   1   1   1   1         687.500       260.100          0.000          0.000        414.000        266.000    1
   44   1   1   1   1        1410.000       533.600          0.000          0.000        668.000        585.000    1
   45   1   1   1   1        1142.000       262.800          0.000          0.000       -552.000       1272.000    1
   46   1   1   1   1        1781.000       588.800          0.000          0.000        855.000       1168.000    1
   47   1   1   1   1        1351.000       428.000          0.000          0.000        607.000        413.000    1
   48   1   1   1   1        1351.000       509.100          0.000          0.000        801.000        659.000    1
   49   1   1   1   1         582.500       172.300          0.000          0.000        132.000        841.000    1
   51   1   1   1   1         525.600       161.100          0.000          0.000        819.000        625.000    1
   52   1   1   1   1        1105.000       392.200          0.000          0.000        284.000        626.000    1
   53   1   1   1   1         985.200       350.000          0.000          0.000        437.000        771.000    1
   54   1   1   1   1        1131.000       379.200          0.000          0.000        730.000        308.000    1
   55   1   1   1   1          12.000         8.000          0.000          0.000          0.000          0.000    1
   56   1   1   1   1         658.500       256.200          0.000          0.000        321.000       -501.000    1
   57   1   1   1   1        2488.000      1059.000          0.000          0.000       2093.000       -530.000    1
   58   1   1   1   1          15.000        10.000          0.000          0.000          0.000          0.000    1
   59   1   1   1   1         442.500       172.300          0.000          0.000        220.000       -592.000    1
   60   1   1   1   1         258.200       150.200          0.000          0.000        294.000       -289.000    1
   61   1   1   1   1         599.700       284.700          0.000          0.000        782.000       -981.000    1
   62   1   1   1   1         432.500       177.200          0.000          0.000        199.000       -265.000    1
   63   1   1   1   1         818.600       401.900          0.000          0.000        513.000       -336.000    1
   64   1   1   1   1        1768.000       688.600          0.000          0.000        829.000       -803.000    1
   65   1   1   1   1        3076.000      1526.000          0.000          0.000        522.000       -984.000    1
   66   1   1   1   1        1394.000       683.000          0.000          0.000        260.000       -632.000    1
   67   1   1   1   1        1524.000       597.800          0.000          0.000        560.000       -635.000    1
   68   1   1   1   1         649.900       245.500          0.000          0.000        436.000       -923.000    1
   69   1   1   1   1        1761.000       684.500          0.000          0.000       1360.000       -999.000    1
   70   1   1   1   1         361.600       252.800          0.000          0.000        159.000       -510.000    1
   71   1   1   1   1         234.400       139.200          0.000          0.000        121.000       -207.000    1
   72   1   1   1   1         335.400       123.400          0.000          0.000        158.000        178.000    1
   73   1   1   1   1         237.000       109.600          0.000          0.000        102.000        295.000    1
   74   1   1   1   1         152.800        79.420          0.000          0.000         75.500        -48.000    1
   75   1   1   1   1         404.500       146.600          0.000          0.000        174.000        204.000    1
   76   1   1   1   1        1212.000       873.900          0.000          0.000        219.000         12.800    1
   77   1   1   1   1         180.100       129.900          0.000          0.000        150.000        234.000    1
   78   1   1   1   1          42.840       150.000          0.000          0.000          0.000          0.000    1
   80   1   1   1   1         322.900       191.400          0.000          0.000        198.000        247.000    1
   81   1   1   1   1         340.500       125.600          0.000          0.000         85.500          0.000    1
   82   1   1   1   1         481.100       239.900          0.000          0.000        187.000         12.500    1
   83   1   1   1   1           0.000         0.000          0.000          0.000          0.000       -191.000    1
   84   1   1   1   1         161.200       103.900          0.000          0.000        498.000        497.000    1
   85   1   1   1   1         464.200       181.000          0.000          0.000       -302.000       -386.000    1
   86   1   1   1   1         316.400       138.700          0.000          0.000        131.000        201.000    1
   87   1   1   1   1           0.000         0.000          0.000          0.000          0.000         50.100    1
   88   1   1   1   1           0.000         0.000          0.000          0.000          0.000       -128.000    1
   89   1   1   1   1        1096.000       560.100          0.000          0.000        679.000        623.000    1
   90   1   1   1   1         352.500       174.900          0.000          0.000        168.000        -76.000    1
   91   1   1   1   1         400.100       203.800          0.000          0.000        172.000         29.800    1
   99   1   1   1   1         678.400       318.400          0.000          0.000        320.000       -123.000    1
  100   1   1   1   1         314.900       263.900          0.000          0.000        328.000        -54.000    1
  101   1   1   1   1          80.000         0.000          0.000          0.000          0.000          0.000    1
  102   1   1   1   1          35.000        23.430          0.000          0.000          0.000       1334.000    1
  103   1   1   1   1           0.000        14.710          0.000          0.000          0.000        -55.000    1
  104   1   1   1   1           0.000        31.230          0.000          0.000          0.000       -762.000    1
  105   1   1   1   1         769.200       399.700          0.000          0.000        760.000        485.000    1
  106   1   1   1   1           0.000         0.000          0.000          0.000          0.000        540.000    1
  107   1   1   1   1         104.000        52.000          0.000          0.000          0.000       -477.000    1
  108   1   1   1   1         546.200       423.900          0.000          0.000        600.000        -48.000    1
  109   1   1   1   1         973.100       323.800          0.000          0.000       -531.000        707.000    1
  110   1   1   1   1         468.400       181.100          0.000          0.000        356.000       -195.000    1
  111   1   1   1   1         209.300        94.400          0.000          0.000         97.400        -43.000    1
  112   1   1   1   1         800.000       237.700          0.000          0.000        435.000       1128.000    1
  113   1   1   1   1         800.000       588.300          0.000          0.000        118.000        341.000    1
  114   1   1   1   1         378.300       251.600          0.000          0.000        211.000         27.600    1
  115   1   1   1   1         593.900       327.100          0.000          0.000        353.000       -395.000    1
  116   1   1   1   1         710.100       299.800          0.000          0.000       -329.000        700.000    1
  117   1   1   1   1        1036.000       771.700          0.000          0.000        749.000       -754.000    1
  118   1   1   1   1          95.330        49.140          0.000          0.000        303.000       -601.000    1
  119   1   1   1   1         779.200       781.000          0.000          0.000        300.000        -29.000    1
  120   1   1   1   1         551.100       562.000          0.000          0.000        395.000        -22.000    1
  121   1   1   1   1          87.290        81.360          0.000          0.000        879.000       -481.000    1
  122   1   1   1   1         144.800       126.800          0.000          0.000        790.000       -523.000    1
  123   1   1   1   1          98.400        83.350          0.000          0.000       1007.000       -183.000    1
  124   1   1   1   1         267.800       110.400          0.000          0.000        393.000        379.000    1
  125   1   1   1   1         618.300       489.500          0.000          0.000        442.000        329.000    1
  127   1   1   1   1           0.000         0.000          0.000          0.000          0.000       -382.000    1
  128   1   1   1   1         228.100       158.400          0.000          0.000          0.000        908.000    1
  129   1   1   1   1          86.340        17.240          0.000          0.000        160.000       1770.000    1
  130   1   1   1   1          36.040        19.410          0.000          0.000          0.000        -80.000    1
  131   1   1   1   1          16.770         4.730          0.000          0.000          0.000       -162.000    1
  132   1   1   1   1          14.700         6.917          0.000          0.000         25.000       -108.000    1
  133   1   1   1   1         164.400       141.500          0.000          0.000        351.000       -207.000    1
  134   1   1   1   1          82.500        59.010          0.000          0.000         49.700          0.000    1
  135   1   1   1   1          27.680        19.430          0.000          0.000       1002.000       -292.000    1
  136   1   1   1   1         315.600       255.000          0.000          0.000        407.000        295.000    1
  137   1   1   1   1         338.200       243.500          0.000          0.000        200.000        304.000    1
  139   1   1   1   1           0.000         0.000          0.000          0.000          0.000       -328.000    1
  140   1   1   1   1         296.400       294.500          0.000          0.000        -44.000        188.000    1
  141   1   1   1   1         156.300       120.000          0.000          0.000        428.000       -117.000    1
0 /end load section starting source section
    2   1    3570.0000     880.8000     880.8000       0.0000  1.0490   0  100.000  0.00000  0.00000  0.00000  0.00000  1.00000  1  100.0  9999.000  -9999.000  1  1.0000
    5   1       0.0000       0.0000       0.0000       0.0000  0.9660   0  100.000  0.00000  0.00000  0.00000  0.00000  1.00000  1  100.0  9999.000  -9999.000  1  1.0000
    8   1       0.0000       0.0000       0.0000       0.0000  0.9940   0  100.000  0.00000  0.00000  0.00000  0.00000  1.00000  1  100.0  9999.000  -9999.000  1  1.0000
   12   1       0.0000       0.0000       0.0000       0.0000  1.0230   0  100.000  0.00000  0.00000  0.00000  0.00000  1.00000  1  100.0  9999.000  -9999.000  1  1.0000
   13   1    3350.0000     686.6000     686.6000       0.0000  1.0050   0  100.000  0.00000  0.00000  0.00000  0.00000  1.00000  1  100.0  9999.000  -9999.000  1  1.0000
   18   1       0.0000       0.0000       0.0000       0.0000  1.0010   0  100.000  0.00000  0.00000  0.00000  0.00000  1.00000  1  100.0  9999.000  -9999.000  1  1.0000
   19   1    6325.0000    1454.0000    1454.0000       0.0000  1.0000   0  100.000  0.00000  0.00000  0.00000  0.00000  1.00000  1  100.0  9999.000  -9999.000  1  1.0000
   20   1       0.0000       0.0000       0.0000       0.0000  0.9990   0  100.000  0.00000  0.00000  0.00000  0.00000  1.00000  1  100.0  9999.000  -9999.000  1  1.0000
   21   1       0.0000       0.0000       0.0000       0.0000  1.0100   0  100.000  0.00000  0.00000  0.00000  0.00000  1.00000  1  100.0  9999.000  -9999.000  1  1.0000
   22   1       0.0000       0.0000       0.0000       0.0000  0.9940   0  100.000  0.00000  0.00000  0.00000  0.00000  1.00000  1  100.0  9999.000  -9999.000  1  1.0000
   23   1       0.0000       0.0000       0.0000       0.0000  1.0020   0  100.000  0.00000  0.00000  0.00000  0.00000  1.00000  1  100.0  9999.000  -9999.000  1  1.0000
   24   1       0.0000       0.0000       0.0000       0.0000  0.9970   0  100.000  0.00000  0.00000  0.00000  0.00000  1.00000  1  100.0  9999.000  -9999.000  1  1.0000
   25   1       0.0000       0.0000       0.0000       0.0000  1.0020   0  100.000  0.00000  0.00000  0.00000  0.00000  1.00000  1  100.0  9999.000  -9999.000  1  1.0000
   26   1       0.0000       0.0000       0.0000       0.0000  1.0000   0  100.000  0.00000  0.00000  0.00000  0.00000  1.00000  1  100.0  9999.000  -9999.000  1  1.0000
   27   1       0.0000       0.0000       0.0000       0.0000  0.9910   0  100.000  0.00000  0.00000  0.00000  0.00000  1.00000  1  100.0  9999.000  -9999.000  1  1.0000
   28   1       0.0000       0.0000       0.0000       0.0000  0.9880   0  100.000  0.00000  0.00000  0.00000  0.00000  1.00000  1  100.0  9999.000  -9999.000  1  1.0000
   33   1       0.0000       0.0000       0.0000       0.0000  0.9910   0  100.000  0.00000  0.00000  0.00000  0.00000  1.00000  1  100.0  9999.000  -9999.000  1  1.0000
   34   1       0.0000       0.0000       0.0000       0.0000  1.0010   0  100.000  0.00000  0.00000  0.00000  0.00000  1.00000  1  100.0  9999.000  -9999.000  1  1.0000
   40   1       0.0000       0.0000       0.0000       0.0000  0.9840   0  100.000  0.00000  0.00000  0.00000  0.00000  1.00000  1  100.0  9999.000  -9999.000  1  1.0000
   51   1       0.0000       0.0000       0.0000       0.0000  0.9990   0  100.000  0.00000  0.00000  0.00000  0.00000  1.00000  1  100.0  9999.000  -9999.000  1  1.0000
   53   1       0.0000       0.0000       0.0000       0.0000  1.0000   0  100.000  0.00000  0.00000  0.00000  0.00000  1.00000  1  100.0  9999.000  -9999.000  1  1.0000
   55   1    1084.0000      54.4400      54.4400       0.0000  1.0000   0  100.000  0.00000  0.00000  0.00000  0.00000  1.00000  1  100.0  9999.000  -9999.000  1  1.0000
   56   1    1194.0000     559.9000     559.9000       0.0000  1.0000   0  100.000  0.00000  0.00000  0.00000  0.00000  1.00000  1  100.0  9999.000  -9999.000  1  1.0000
   57   1    5764.0000    1500.0000    1500.0000       0.0000  1.0060   0  100.000  0.00000  0.00000  0.00000  0.00000  1.00000  1  100.0  9999.000  -9999.000  1  1.0000
   58   1    1355.0000     116.4000     116.4000       0.0000  1.0000   0  100.000  0.00000  0.00000  0.00000  0.00000  1.00000  1  100.0  9999.000  -9999.000  1  1.0000
   59   1    1488.0000     486.9000     486.9000       0.0000  1.0000   0  100.000  0.00000  0.00000  0.00000  0.00000  1.00000  1  100.0  9999.000  -9999.000  1  1.0000
   60   1     842.0000     236.2000     236.2000       0.0000  0.9940   0  100.000  0.00000  0.00000  0.00000  0.00000  1.00000  1  100.0  9999.000  -9999.000  1  1.0000
   61   1    2931.0000     569.7000     569.7000       0.0000  1.0000   0  100.000  0.00000  0.00000  0.00000  0.00000  1.00000  1  100.0  9999.000  -9999.000  1  1.0000
   62   1     714.0000     299.0000     299.0000       0.0000  1.0000   0  100.000  0.00000  0.00000  0.00000  0.00000  1.00000  1  100.0  9999.000  -9999.000  1  1.0000
   63   1    3968.0000     565.5000     565.5000       0.0000  1.0100   0  100.000  0.00000  0.00000  0.00000  0.00000  1.00000  1  100.0  9999.000  -9999.000  1  1.0000
   64   1    2632.0000    1178.0000    1178.0000       0.0000  1.0000   0  100.000  0.00000  0.00000  0.00000  0.00000  1.00000  1  100.0  9999.000  -9999.000  1  1.0000
   65   1    8144.0000    1244.0000    1244.0000       0.0000  1.0000   0  100.000  0.00000  0.00000  0.00000  0.00000  1.00000  1  100.0  9999.000  -9999.000  1  1.0000
   66   1    4819.0000    1330.0000    1330.0000       0.0000  1.0050   0  100.000  0.00000  0.00000  0.00000  0.00000  1.00000  1  100.0  9999.000  -9999.000  1  1.0000
   67   1    2288.0000     834.5000     834.5000       0.0000  1.0020   0  100.000  0.00000  0.00000  0.00000  0.00000  1.00000  1  100.0  9999.000  -9999.000  1  1.0000
   68   1    2987.0000     550.1000     550.1000       0.0000  1.0000   0  100.000  0.00000  0.00000  0.00000  0.00000  1.00000  1  100.0  9999.000  -9999.000  1  1.0000
   69   1    4859.0000    1265.0000    1265.0000       0.0000  1.0000   0  100.000  0.00000  0.00000  0.00000  0.00000  1.00000  1  100.0  9999.000  -9999.000  1  1.0000
   71   1     634.0000     239.9000     239.9000       0.0000  0.9850   0  100.000  0.00000  0.00000  0.00000  0.00000  1.00000  1  100.0  9999.000  -9999.000  1  1.0000
   72   1       0.0000       0.0000       0.0000       0.0000  0.9910   0  100.000  0.00000  0.00000  0.00000  0.00000  1.00000  1  100.0  9999.000  -9999.000  1  1.0000
   73   1       0.0000       0.0000       0.0000       0.0000  0.9840   0  100.000  0.00000  0.00000  0.00000  0.00000  1.00000  1  100.0  9999.000  -9999.000  1  1.0000
   74   1     570.0000     175.7000     175.7000       0.0000  1.0000   0  100.000  0.00000  0.00000  0.00000  0.00000  1.00000  1  100.0  9999.000  -9999.000  1  1.0000
   75   1       0.0000       0.0000       0.0000       0.0000  1.0170   0  100.000  0.00000  0.00000  0.00000  0.00000  1.00000  1  100.0  9999.000  -9999.000  1  1.0000
   76   1    2674.0000     916.7000     916.7000       0.0000  0.9990   0  100.000  0.00000  0.00000  0.00000  0.00000  1.00000  1  100.0  9999.000  -9999.000  1  1.0000
   77   1       0.0000       0.0000       0.0000       0.0000  1.0150   0  100.000  0.00000  0.00000  0.00000  0.00000  1.00000  1  100.0  9999.000  -9999.000  1  1.0000
   78   1     480.2000     300.0000     300.0000       0.0000  1.0400   0  100.000  0.00000  0.00000  0.00000  0.00000  1.00000  1  100.0  9999.000  -9999.000  1  1.0000
   79   1    6008.0000    1179.0000    1179.0000       0.0000  1.0080   0  100.000  0.00000  0.00000  0.00000  0.00000  1.00000  1  100.0  9999.000  -9999.000  1  1.0000
   80   1       0.0000       0.0000       0.0000       0.0000  0.9920   0  100.000  0.00000  0.00000  0.00000  0.00000  1.00000  1  100.0  9999.000  -9999.000  1  1.0000
   81   1       0.0000       0.0000       0.0000       0.0000  1.0150   0  100.000  0.00000  0.00000  0.00000  0.00000  1.00000  1  100.0  9999.000  -9999.000  1  1.0000
   82   1     704.0000     253.0000     253.0000       0.0000  1.0000   0  100.000  0.00000  0.00000  0.00000  0.00000  1.00000  1  100.0  9999.000  -9999.000  1  1.0000
   84   1       0.0000       0.0000       0.0000       0.0000  1.0120   0  100.000  0.00000  0.00000  0.00000  0.00000  1.00000  1  100.0  9999.000  -9999.000  1  1.0000
   85   1    1831.0000     649.0000     649.0000       0.0000  1.0070   0  100.000  0.00000  0.00000  0.00000  0.00000  1.00000  1  100.0  9999.000  -9999.000  1  1.0000
   86   1       0.0000       0.0000       0.0000       0.0000  0.9960   0  100.000  0.00000  0.00000  0.00000  0.00000  1.00000  1  100.0  9999.000  -9999.000  1  1.0000
   87   1       0.0000       0.0000       0.0000       0.0000  1.0260   0  100.000  0.00000  0.00000  0.00000  0.00000  1.00000  1  100.0  9999.000  -9999.000  1  1.0000
   88   1       0.0000       0.0000       0.0000       0.0000  1.0270   0  100.000  0.00000  0.00000  0.00000  0.00000  1.00000  1  100.0  9999.000  -9999.000  1  1.0000
   89   1       0.0000       0.0000       0.0000       0.0000  1.0070   0  100.000  0.00000  0.00000  0.00000  0.00000  1.00000  1  100.0  9999.000  -9999.000  1  1.0000
   90   1       0.0000       0.0000       0.0000       0.0000  1.0150   0  100.000  0.00000  0.00000  0.00000  0.00000  1.00000  1  100.0  9999.000  -9999.000  1  1.0000
   99   1       0.0000       0.0000       0.0000       0.0000  0.9920   0  100.000  0.00000  0.00000  0.00000  0.00000  1.00000  1  100.0  9999.000  -9999.000  1  1.0000
  100   1    2020.0000     771.0000     771.0000       0.0000  1.0170   0  100.000  0.00000  0.00000  0.00000  0.00000  1.00000  1  100.0  9999.000  -9999.000  1  1.0000
  101   1       0.0000       0.0000       0.0000       0.0000  1.0260   0  100.000  0.00000  0.00000  0.00000  0.00000  1.00000  1  100.0  9999.000  -9999.000  1  1.0000
  102   1       0.0000       0.0000       0.0000       0.0000  1.0310   0  100.000  0.00000  0.00000  0.00000  0.00000  1.00000  1  100.0  9999.000  -9999.000  1  1.0000
  103   1       0.0000       0.0000       0.0000       0.0000  1.0260   0  100.000  0.00000  0.00000  0.00000  0.00000  1.00000  1  100.0  9999.000  -9999.000  1  1.0000
  104   1    2202.0000     720.3000     720.3000       0.0000  1.0200   0  100.000  0.00000  0.00000  0.00000  0.00000  1.00000  1  100.0  9999.000  -9999.000  1  1.0000
  105   1       0.0000       0.0000       0.0000       0.0000  0.9990   0  100.000  0.00000  0.00000  0.00000  0.00000  1.00000  1  100.0  9999.000  -9999.000  1  1.0000
  107   1    2660.0000     316.8000     316.8000       0.0000  1.0000   0  100.000  0.00000  0.00000  0.00000  0.00000  1.00000  1  100.0  9999.000  -9999.000  1  1.0000
  108   1    2160.0000     236.0000     236.0000       0.0000  0.9890   0  100.000  0.00000  0.00000  0.00000  0.00000  1.00000  1  100.0  9999.000  -9999.000  1  1.0000
  109   1       0.0000       0.0000       0.0000       0.0000  1.0220   0  100.000  0.00000  0.00000  0.00000  0.00000  1.00000  1  100.0  9999.000  -9999.000  1  1.0000
  110   1       0.0000       0.0000       0.0000       0.0000  1.0190   0  100.000  0.00000  0.00000  0.00000  0.00000  1.00000  1  100.0  9999.000  -9999.000  1  1.0000
  111   1       0.0000       0.0000       0.0000       0.0000  0.9890   0  100.000  0.00000  0.00000  0.00000  0.00000  1.00000  1  100.0  9999.000  -9999.000  1  1.0000
  112   1       0.0000       0.0000       0.0000       0.0000  1.0190   0  100.000  0.00000  0.00000  0.00000  0.00000  1.00000  1  100.0  9999.000  -9999.000  1  1.0000
  113   1       0.0000       0.0000       0.0000       0.0000  0.9900   0  100.000  0.00000  0.00000  0.00000  0.00000  1.00000  1  100.0  9999.000  -9999.000  1  1.0000
  114   1       0.0000       0.0000       0.0000       0.0000  1.0210   0  100.000  0.00000  0.00000  0.00000  0.00000  1.00000  1  100.0  9999.000  -9999.000  1  1.0000
  115   1    2210.0000     598.1000     598.1000       0.0000  1.0050   0  100.000  0.00000  0.00000  0.00000  0.00000  1.00000  1  100.0  9999.000  -9999.000  1  1.0000
  116   1       0.0000       0.0000       0.0000       0.0000  1.0270   0  100.000  0.00000  0.00000  0.00000  0.00000  1.00000  1  100.0  9999.000  -9999.000  1  1.0000
  117   1    5010.0000    1020.0000    1020.0000       0.0000  0.9970   0  100.000  0.00000  0.00000  0.00000  0.00000  1.00000  1  100.0  9999.000  -9999.000  1  1.0000
  118   1    1352.0000     350.0000     350.0000       0.0000  0.9970   0  100.000  0.00000  0.00000  0.00000  0.00000  1.00000  1  100.0  9999.000  -9999.000  1  1.0000
  119   1    2026.0000     706.4000     706.4000       0.0000  1.0170   0  100.000  0.00000  0.00000  0.00000  0.00000  1.00000  1  100.0  9999.000  -9999.000  1  1.0000
  120   1    2222.0000     637.3000     637.3000       0.0000  1.0100   0  100.000  0.00000  0.00000  0.00000  0.00000  1.00000  1  100.0  9999.000  -9999.000  1  1.0000
  123   1       0.0000       0.0000       0.0000       0.0000  1.0180   0  100.000  0.00000  0.00000  0.00000  0.00000  1.00000  1  100.0  9999.000  -9999.000  1  1.0000
  125   1       0.0000       0.0000       0.0000       0.0000  1.0220   0  100.000  0.00000  0.00000  0.00000  0.00000  1.00000  1  100.0  9999.000  -9999.000  1  1.0000
  126   1    1200.0000     223.5000     223.5000       0.0000  1.0000   0  100.000  0.00000  0.00000  0.00000  0.00000  1.00000  1  100.0  9999.000  -9999.000  1  1.0000
  128   1    5339.0000     876.0000     876.0000       0.0000  1.0090   0  100.000  0.00000  0.00000  0.00000  0.00000  1.00000  1  100.0  9999.000  -9999.000  1  1.0000
  129   1       0.0000       0.0000       0.0000       0.0000  1.0280   0  100.000  0.00000  0.00000  0.00000  0.00000  1.00000  1  100.0  9999.000  -9999.000  1  1.0000
  130   1    2735.0000     615.8000     615.8000       0.0000  0.9990   0  100.000  0.00000  0.00000  0.00000  0.00000  1.00000  1  100.0  9999.000  -9999.000  1  1.0000
  132   1       0.0000       0.0000       0.0000       0.0000  1.0320   0  100.000  0.00000  0.00000  0.00000  0.00000  1.00000  1  100.0  9999.000  -9999.000  1  1.0000
  133   1       0.0000       0.0000       0.0000       0.0000  1.0130   0  100.000  0.00000  0.00000  0.00000  0.00000  1.00000  1  100.0  9999.000  -9999.000  1  1.0000
  135   1       0.0000      56.2300      56.2300       0.0000  1.0200   0  100.000  0.00000  0.00000  0.00000  0.00000  1.00000  1  100.0  9999.000  -9999.000  1  1.0000
  137   1       0.0000       0.0000       0.0000       0.0000  1.0340   0  100.000  0.00000  0.00000  0.00000  0.00000  1.00000  1  100.0  9999.000  -9999.000  1  1.0000
  138   1    2100.0000     425.8000     425.8000       0.0000  1.0000   0  100.000  0.00000  0.00000  0.00000  0.00000  1.00000  1  100.0  9999.000  -9999.000  1  1.0000
  139   1       0.0000       0.0000       0.0000       0.0000  1.0290   0  100.000  0.00000  0.00000  0.00000  0.00000  1.00000  1  100.0  9999.000  -9999.000  1  1.0000
  140   1    2151.0000     586.1000     586.1000       0.0000  1.0230   0  100.000  0.00000  0.00000  0.00000  0.00000  1.00000  1  100.0  9999.000  -9999.000  1  1.0000
0 /end source section starting branch section
    4      5  1   0.00000   0.00010   0.00000  0.00  0.00  0.00   0.00000      0.000   0.0000   0.0000   0.0000   0.0000  1       0.0   1    1.0
   10      9  1   0.00000   0.00010   0.00000  0.00  0.00  0.00   0.00000      0.000   0.0000   0.0000   0.0000   0.0000  1       0.0   1    1.0
   11    102  1   0.00000   0.00010   0.00000  0.00  0.00  0.00   0.00000      0.000   0.0000   0.0000   0.0000   0.0000  1       0.0   1    1.0
   14     12  1   0.00000   0.00010   0.00000  0.00  0.00  0.00   0.00000      0.000   0.0000   0.0000   0.0000   0.0000  1       0.0   1    1.0
   16     15  1   0.00000   0.00010   0.00000  0.00  0.00  0.00   0.00000      0.000   0.0000   0.0000   0.0000   0.0000  1       0.0   1    1.0
    3      1  1   0.00000   0.00010   0.00000  0.00  0.00  0.00   0.00000      0.000   0.0000   0.0000   0.0000   0.0000  1       0.0   1    1.0
   17     18  1   0.00000   0.00010   0.00000  0.00  0.00  0.00   0.00000      0.000   0.0000   0.0000   0.0000   0.0000  1       0.0   1    1.0
    7      8  1   0.00000   0.00010   0.00000  0.00  0.00  0.00   0.00000      0.000   0.0000   0.0000   0.0000   0.0000  1       0.0   1    1.0
    6     27  1   0.00000   0.00010   0.00000  0.00  0.00  0.00   0.00000      0.000   0.0000   0.0000   0.0000   0.0000  1       0.0   1    1.0
   41     51  3   0.01322   0.13338   0.00000  0.00  0.00  0.00   0.00000      0.000   0.0066   0.0000   0.0000   0.0000  1       0.0   1    1.0
   29     21  3   0.00845   0.09104   0.00000  0.00  0.00  0.00   0.00000      0.000   0.0042   0.0000   0.0000   0.0000  1       0.0   1    1.0
   46     30  1   0.00000   0.04454   0.00000  0.00  0.00  0.00   0.00000      0.000   0.0000   0.0000   0.0000   0.0000  1       0.0   1    1.0
   47     31  3   0.00000   0.02128   0.00000  0.00  0.00  0.00   0.00000      0.000   0.0000   0.0000   0.0000   0.0000  1       0.0   1    1.0
   42     21  1   0.00136   0.01814   0.00000  0.00  0.00  0.00   0.00000      0.000   0.0007   0.0000   0.0000   0.0000  1       0.0   1    1.0
   36     23  1   0.00015   0.02015   0.00000  0.00  0.00  0.00   0.00000      0.000   0.0001   0.0000   0.0000   0.0000  1       0.0   1    1.0
   42     23  1   0.00289   0.03846   0.00000  0.00  0.00  0.00   0.00000      0.000   0.0014   0.0000   0.0000   0.0000  1       0.0   1    1.0
   49     24  1   0.00000   0.02679   0.00441  0.00  0.00  0.00   0.00000      0.000   0.0000   0.0000   0.0000   0.0000  1       0.0   1    1.0
   38     51  3   0.00307   0.09007   0.00000  0.00  0.00  0.00   0.00000      0.000   0.0015   0.0000   0.0000   0.0000  1       0.0   1    1.0
   27     44  1   0.00009   0.00100   0.02861  0.00  0.00  0.00   0.00000      0.000   0.0000   0.0000   0.0000   0.0000  1       0.0   1    1.0
   27     44  2   0.00009   0.00100   0.02861  0.00  0.00  0.00   0.00000      0.000   0.0000   0.0000   0.0000   0.0000  1       0.0   1    1.0
   39     46  1   0.00034   0.00385   0.00000  0.00  0.00  0.00   0.00000      0.000   0.0002   0.0000   0.0000   0.0000  1       0.0   1    1.0
   25     40  1   0.01213   0.12108   0.00000  0.00  0.00  0.00   0.00000      0.000   0.0061   0.0000   0.0000   0.0000  1       0.0   1    1.0
   28     52  1   0.00036   0.00444   0.12590  0.00  0.00  0.00   0.00000      0.000   0.0002   0.0000   0.0000   0.0000  1       0.0   1    1.0
   28     52  2   0.00036   0.00444   0.12590  0.00  0.00  0.00   0.00000      0.000   0.0002   0.0000   0.0000   0.0000  1       0.0   1    1.0
   18     53  1   0.00009   0.00190   0.06058  0.00  0.00  0.00   0.00000      0.000   0.0000   0.0000   0.0000   0.0000  1       0.0   1    1.0
   18     53  2   0.00009   0.00190   0.06058  0.00  0.00  0.00   0.00000      0.000   0.0000   0.0000   0.0000   0.0000  1       0.0   1    1.0
   29     21  1   0.00063   0.00925   0.26714  0.00  0.00  0.00   0.00000      0.000   0.0003   0.0000   0.0000   0.0000  1       0.0   1    1.0
   29     21  2   0.00063   0.00925   0.26714  0.00  0.00  0.00   0.00000      0.000   0.0003   0.0000   0.0000   0.0000  1       0.0   1    1.0
   29     36  1   0.00045   0.00553   0.15738  0.00  0.00  0.00   0.00000      0.000   0.0002   0.0000   0.0000   0.0000  1       0.0   1    1.0
   29     36  2   0.00045   0.00553   0.15738  0.00  0.00  0.00   0.00000      0.000   0.0002   0.0000   0.0000   0.0000  1       0.0   1    1.0
   29     47  1   0.00027   0.00372   0.10688  0.00  0.00  0.00   0.00000      0.000   0.0001   0.0000   0.0000   0.0000  1       0.0   1    1.0
   29     47  2   0.00027   0.00372   0.10688  0.00  0.00  0.00   0.00000      0.000   0.0001   0.0000   0.0000   0.0000  1       0.0   1    1.0
   30     23  1   0.00054   0.00553   0.15738  0.00  0.00  0.00   0.00000      0.000   0.0003   0.0000   0.0000   0.0000  1       0.0   1    1.0
   31     36  1   0.00045   0.00580   0.16874  0.00  0.00  0.00   0.00000      0.000   0.0002   0.0000   0.0000   0.0000  1       0.0   1    1.0
   31     36  2   0.00045   0.00580   0.16874  0.00  0.00  0.00   0.00000      0.000   0.0002   0.0000   0.0000   0.0000  1       0.0   1    1.0
   31     23  1   0.00054   0.00517   0.14597  0.00  0.00  0.00   0.00000      0.000   0.0003   0.0000   0.0000   0.0000  1       0.0   1    1.0
   31     23  2   0.00054   0.00517   0.14597  0.00  0.00  0.00   0.00000      0.000   0.0003   0.0000   0.0000   0.0000  1       0.0   1    1.0
   31     39  1   0.00018   0.00245   0.06868  0.00  0.00  0.00   0.00000      0.000   0.0001   0.0000   0.0000   0.0000  1       0.0   1    1.0
   31     39  2   0.00018   0.00245   0.06868  0.00  0.00  0.00   0.00000      0.000   0.0001   0.0000   0.0000   0.0000  1       0.0   1    1.0
   34     53  1   0.00018   0.00254   0.07309  0.00  0.00  0.00   0.00000      0.000   0.0001   0.0000   0.0000   0.0000  1       0.0   1    1.0
   34     53  2   0.00018   0.00254   0.07309  0.00  0.00  0.00   0.00000      0.000   0.0001   0.0000   0.0000   0.0000  1       0.0   1    1.0
   20     26  1   0.00036   0.00426   0.12304  0.00  0.00  0.00   0.00000      0.000   0.0002   0.0000   0.0000   0.0000  1       0.0   1    1.0
   20     26  2   0.00036   0.00426   0.12304  0.00  0.00  0.00   0.00000      0.000   0.0002   0.0000   0.0000   0.0000  1       0.0   1    1.0
   35     32  1   0.00009   0.00254   0.10932  0.00  0.00  0.00   0.00000      0.000   0.0000   0.0000   0.0000   0.0000  1       0.0   1    1.0
   35     32  2   0.00009   0.00254   0.10932  0.00  0.00  0.00   0.00000      0.000   0.0000   0.0000   0.0000   0.0000  1       0.0   1    1.0
   22     28  1   0.00027   0.00299   0.08583  0.00  0.00  0.00   0.00000      0.000   0.0001   0.0000   0.0000   0.0000  1       0.0   1    1.0
   22     28  2   0.00027   0.00299   0.08583  0.00  0.00  0.00   0.00000      0.000   0.0001   0.0000   0.0000   0.0000  1       0.0   1    1.0
   22     29  1   0.00091   0.01333   0.38527  0.00  0.00  0.00   0.00000      0.000   0.0005   0.0000   0.0000   0.0000  1       0.0   1    1.0
   22     29  2   0.00091   0.01333   0.38527  0.00  0.00  0.00   0.00000      0.000   0.0005   0.0000   0.0000   0.0000  1       0.0   1    1.0
   37     29  1   0.00018   0.00172   0.04868  0.00  0.00  0.00   0.00000      0.000   0.0001   0.0000   0.0000   0.0000  1       0.0   1    1.0
   37     36  1   0.00018   0.00345   0.10016  0.00  0.00  0.00   0.00000      0.000   0.0001   0.0000   0.0000   0.0000  1       0.0   1    1.0
   37     36  2   0.00018   0.00345   0.10016  0.00  0.00  0.00   0.00000      0.000   0.0001   0.0000   0.0000   0.0000  1       0.0   1    1.0
   24     33  1   0.00036   0.00517   0.14884  0.00  0.00  0.00   0.00000      0.000   0.0002   0.0000   0.0000   0.0000  1       0.0   1    1.0
   24     33  2   0.00036   0.00517   0.14884  0.00  0.00  0.00   0.00000      0.000   0.0002   0.0000   0.0000   0.0000  1       0.0   1    1.0
   24     48  1   0.00027   0.00308   0.08869  0.00  0.00  0.00   0.00000      0.000   0.0001   0.0000   0.0000   0.0000  1       0.0   1    1.0
   24     48  2   0.00027   0.00308   0.08869  0.00  0.00  0.00   0.00000      0.000   0.0001   0.0000   0.0000   0.0000  1       0.0   1    1.0
   38     24  1   0.00045   0.00599   0.17172  0.00  0.00  0.00   0.00000      0.000   0.0002   0.0000   0.0000   0.0000  1       0.0   1    1.0
   38     24  2   0.00045   0.00599   0.17172  0.00  0.00  0.00   0.00000      0.000   0.0002   0.0000   0.0000   0.0000  1       0.0   1    1.0
   38     43  1   0.00073   0.00989   0.28687  0.00  0.00  0.00   0.00000      0.000   0.0004   0.0000   0.0000   0.0000  1       0.0   1    1.0
   38     43  2   0.00073   0.00989   0.28687  0.00  0.00  0.00   0.00000      0.000   0.0004   0.0000   0.0000   0.0000  1       0.0   1    1.0
   40     28  1   0.00036   0.00372   0.10590  0.00  0.00  0.00   0.00000      0.000   0.0002   0.0000   0.0000   0.0000  1       0.0   1    1.0
   40     28  2   0.00027   0.00372   0.10590  0.00  0.00  0.00   0.00000      0.000   0.0001   0.0000   0.0000   0.0000  1       0.0   1    1.0
   40     33  1   0.00018   0.00245   0.06868  0.00  0.00  0.00   0.00000      0.000   0.0001   0.0000   0.0000   0.0000  1       0.0   1    1.0
   40     33  2   0.00018   0.00245   0.06868  0.00  0.00  0.00   0.00000      0.000   0.0001   0.0000   0.0000   0.0000  1       0.0   1    1.0
   43     20  1   0.00036   0.00481   0.13737  0.00  0.00  0.00   0.00000      0.000   0.0002   0.0000   0.0000   0.0000  1       0.0   1    1.0
   43     20  2   0.00036   0.00481   0.13737  0.00  0.00  0.00   0.00000      0.000   0.0002   0.0000   0.0000   0.0000  1       0.0   1    1.0
   44     46  1   0.00018   0.00263   0.07442  0.00  0.00  0.00   0.00000      0.000   0.0001   0.0000   0.0000   0.0000  1       0.0   1    1.0
   44     46  2   0.00018   0.00263   0.07442  0.00  0.00  0.00   0.00000      0.000   0.0001   0.0000   0.0000   0.0000  1       0.0   1    1.0
   45     43  1   0.00045   0.00635   0.18280  0.00  0.00  0.00   0.00000      0.000   0.0002   0.0000   0.0000   0.0000  1       0.0   1    1.0
   45     43  2   0.00045   0.00635   0.18280  0.00  0.00  0.00   0.00000      0.000   0.0002   0.0000   0.0000   0.0000  1       0.0   1    1.0
   26     44  1   0.00045   0.00635   0.18032  0.00  0.00  0.00   0.00000      0.000   0.0002   0.0000   0.0000   0.0000  1       0.0   1    1.0
   26     44  2   0.00027   0.00363   0.10303  0.00  0.00  0.00   0.00000      0.000   0.0001   0.0000   0.0000   0.0000  1       0.0   1    1.0
   47     31  1   0.00009   0.00163   0.06996  0.00  0.00  0.00   0.00000      0.000   0.0000   0.0000   0.0000   0.0000  1       0.0   1    1.0
   47     31  2   0.00009   0.00163   0.06996  0.00  0.00  0.00   0.00000      0.000   0.0000   0.0000   0.0000   0.0000  1       0.0   1    1.0
   48     43  1   0.00045   0.00544   0.15452  0.00  0.00  0.00   0.00000      0.000   0.0002   0.0000   0.0000   0.0000  1       0.0   1    1.0
   48     43  2   0.00045   0.00544   0.15452  0.00  0.00  0.00   0.00000      0.000   0.0002   0.0000   0.0000   0.0000  1       0.0   1    1.0
   49     54  1   0.00027   0.00390   0.11251  0.00  0.00  0.00   0.00000      0.000   0.0001   0.0000   0.0000   0.0000  1       0.0   1    1.0
   49     54  2   0.00027   0.00390   0.11251  0.00  0.00  0.00   0.00000      0.000   0.0001   0.0000   0.0000   0.0000  1       0.0   1    1.0
   50     28  1   0.00100   0.01034   0.29189  0.00  0.00  0.00   0.00000      0.000   0.0005   0.0000   0.0000   0.0000  1       0.0   1    1.0
   50     52  1   0.00082   0.00816   0.23180  0.00  0.00  0.00   0.00000      0.000   0.0004   0.0000   0.0000   0.0000  1       0.0   1    1.0
   50     52  2   0.00082   0.00816   0.23180  0.00  0.00  0.00   0.00000      0.000   0.0004   0.0000   0.0000   0.0000  1       0.0   1    1.0
   51     38  1   0.00063   0.00871   0.24900  0.00  0.00  0.00   0.00000      0.000   0.0003   0.0000   0.0000   0.0000  1       0.0   1    1.0
   51     38  2   0.00063   0.00871   0.24900  0.00  0.00  0.00   0.00000      0.000   0.0003   0.0000   0.0000   0.0000  1       0.0   1    1.0
   52     35  1   0.00009   0.00254   0.10932  0.00  0.00  0.00   0.00000      0.000   0.0000   0.0000   0.0000   0.0000  1       0.0   1    1.0
   52     35  2   0.00009   0.00254   0.10932  0.00  0.00  0.00   0.00000      0.000   0.0000   0.0000   0.0000   0.0000  1       0.0   1    1.0
   52      8  1   0.00009   0.00154   0.04294  0.00  0.00  0.00   0.00000      0.000   0.0000   0.0000   0.0000   0.0000  1       0.0   1    1.0
   52      8  2   0.00018   0.00154   0.04294  0.00  0.00  0.00   0.00000      0.000   0.0001   0.0000   0.0000   0.0000  1       0.0   1    1.0
    8     35  1   0.00027   0.00426   0.12376  0.00  0.00  0.00   0.00000      0.000   0.0001   0.0000   0.0000   0.0000  1       0.0   1    1.0
    8     35  2   0.00027   0.00426   0.12376  0.00  0.00  0.00   0.00000      0.000   0.0001   0.0000   0.0000   0.0000  1       0.0   1    1.0
    8     47  1   0.00036   0.00499   0.14311  0.00  0.00  0.00   0.00000      0.000   0.0002   0.0000   0.0000   0.0000  1       0.0   1    1.0
    8     47  2   0.00045   0.00508   0.14311  0.00  0.00  0.00   0.00000      0.000   0.0002   0.0000   0.0000   0.0000  1       0.0   1    1.0
   53     33  1   0.00027   0.00435   0.12657  0.00  0.00  0.00   0.00000      0.000   0.0001   0.0000   0.0000   0.0000  1       0.0   1    1.0
   53     33  2   0.00027   0.00435   0.12657  0.00  0.00  0.00   0.00000      0.000   0.0001   0.0000   0.0000   0.0000  1       0.0   1    1.0
   54     45  1   0.00036   0.00753   0.32794  0.00  0.00  0.00   0.00000      0.000   0.0002   0.0000   0.0000   0.0000  1       0.0   1    1.0
   54     45  2   0.00036   0.00753   0.32794  0.00  0.00  0.00   0.00000      0.000   0.0002   0.0000   0.0000   0.0000  1       0.0   1    1.0
   54     48  1   0.00018   0.00245   0.06868  0.00  0.00  0.00   0.00000      0.000   0.0001   0.0000   0.0000   0.0000  1       0.0   1    1.0
   54     48  2   0.00018   0.00245   0.06868  0.00  0.00  0.00   0.00000      0.000   0.0001   0.0000   0.0000   0.0000  1       0.0   1    1.0
    9     29  1   0.00030   0.00540   0.01275  0.00  0.00  0.00   0.00000      0.000   0.0001   0.0000   0.0000   0.0000  1       0.0   1    1.0
    9     29  2   0.00030   0.00540   0.01275  0.00  0.00  0.00   0.00000      0.000   0.0001   0.0000   0.0000   0.0000  1       0.0   1    1.0
  122    133  3   0.00000   0.04169   0.00000  0.00  0.00  0.00   0.00000      0.000   0.0000   0.0000   0.0000   0.0000  1       0.0   1    1.0
  134    135  3   0.00158   0.10016   0.00000  0.00  0.00  0.00   0.00000      0.000   0.0008   0.0000   0.0000   0.0000  1       0.0   1    1.0
    1    116  3   0.00213   0.02013   0.00000  0.00  0.00  0.00   0.00000      0.000   0.0011   0.0000   0.0000   0.0000  1       0.0   1    1.0
  110    109  1   0.01547   0.11913   0.00000  0.00  0.00  0.00   0.00000      0.000   0.0077   0.0000   0.0000   0.0000  1       0.0   1    1.0
  109    112  1   0.00048   0.00715   0.00000  0.00  0.00  0.00   0.00000      0.000   0.0002   0.0000   0.0000   0.0000  1       0.0   1    1.0
   73     72  1   0.00802   0.08714   0.00000  0.00  0.00  0.00   0.00000      0.000   0.0040   0.0000   0.0000   0.0000  1       0.0   1    1.0
   77     84  2   0.00437   0.12642   0.00000  0.00  0.00  0.00   0.00000      0.000   0.0022   0.0000   0.0000   0.0000  1       0.0   1    1.0
   99     86  3   0.00240   0.05959   0.00000  0.00  0.00  0.00   0.00000      0.000   0.0012   0.0000   0.0000   0.0000  1       0.0   1    1.0
  105     89  3   0.00454   0.09030   0.00000  0.00  0.00  0.00   0.00000      0.000   0.0023   0.0000   0.0000   0.0000  1       0.0   1    1.0
   90     91  1   0.00888   0.11065   0.00000  0.00  0.00  0.00   0.00000      0.000   0.0044   0.0000   0.0000   0.0000  1       0.0   1    1.0
  137    125  3   0.00620   0.12205   0.00000  0.00  0.00  0.00   0.00000      0.000   0.0031   0.0000   0.0000   0.0000  1       0.0   1    1.0
    1    116  1   0.00004   0.00101   0.02974  0.00  0.00  0.00   0.00000      0.000   0.0000   0.0000   0.0000   0.0000  1       0.0   1    1.0
    1    116  2   0.00004   0.00101   0.02974  0.00  0.00  0.00   0.00000      0.000   0.0000   0.0000   0.0000   0.0000  1       0.0   1    1.0
  106    110  1   0.00090   0.01290   0.34350  0.00  0.00  0.00   0.00000      0.000   0.0004   0.0000   0.0000   0.0000  1       0.0   1    1.0
  106     12  1   0.00070   0.00930   0.24735  0.00  0.00  0.00   0.00000      0.000   0.0004   0.0000   0.0000   0.0000  1       0.0   1    1.0
  106     12  2   0.00070   0.00930   0.24735  0.00  0.00  0.00   0.00000      0.000   0.0004   0.0000   0.0000   0.0000  1       0.0   1    1.0
  106    116  1   0.00060   0.00660   0.18140  0.00  0.00  0.00   0.00000      0.000   0.0003   0.0000   0.0000   0.0000  1       0.0   1    1.0
  109    116  1   0.00120   0.01210   0.33210  0.00  0.00  0.00   0.00000      0.000   0.0006   0.0000   0.0000   0.0000  1       0.0   1    1.0
  109    116  2   0.00120   0.01190   0.32650  0.00  0.00  0.00   0.00000      0.000   0.0006   0.0000   0.0000   0.0000  1       0.0   1    1.0
  110    116  1   0.00070   0.00970   0.25560  0.00  0.00  0.00   0.00000      0.000   0.0004   0.0000   0.0000   0.0000  1       0.0   1    1.0
  110    116  2   0.00070   0.00970   0.25560  0.00  0.00  0.00   0.00000      0.000   0.0004   0.0000   0.0000   0.0000  1       0.0   1    1.0
  112    110  1   0.00070   0.01050   0.28030  0.00  0.00  0.00   0.00000      0.000   0.0004   0.0000   0.0000   0.0000  1       0.0   1    1.0
  113    112  1   0.00060   0.00920   0.21985  0.00  0.00  0.00   0.00000      0.000   0.0003   0.0000   0.0000   0.0000  1       0.0   1    1.0
  113    112  2   0.00060   0.00920   0.21985  0.00  0.00  0.00   0.00000      0.000   0.0003   0.0000   0.0000   0.0000  1       0.0   1    1.0
...